11
Furfural geometry on CCCBDB cc-pvdz
O   1.2361170   -0.2664980  0.0000000
C   1.0809400   -1.5912540  0.0000000
C   -0.2248920  -1.9299280  0.0000000
C   0.0000000   0.2787340   0.0000000
C   -0.9410650  -0.6878980  0.0000000
C   -0.0954850  1.7419170   0.0000000
O   -1.1284450  2.3293330   0.0000000
H   1.9824180   -2.1779710  0.0000000
H   -0.6297880  -2.9274900  0.0000000
H   -2.0056250  -0.5287680  0.0000000
H   0.8746290   2.2621310   0.0000000
