49
Hydroxycholoquine
Cl   -7.0057    2.5777    2.0365 
O    4.9080   -4.9143   -1.4358 
N    1.8213   -2.7147   -1.9727 
N   -0.2588    1.7350    2.0474 
N   -2.5848    5.0614    2.3066 
C    0.6652   -0.1412    0.8261 
C    0.8187   -0.8084   -0.5643 
C   -0.0250    1.2499    0.7515 
C    1.5000   -2.1932   -0.5993 
C    2.7355   -3.9033   -1.9593 
C    0.7477    2.2920   -0.1125 
C    0.6151   -2.8589   -2.8614 
C   -1.0646    2.7626    2.2714 
C    4.1211   -3.7381   -1.2863 
C    0.8121   -3.1954   -4.3564 
C   -2.4790    2.6560    2.2438 
C   -0.4433    4.0221    2.4116 
C   -3.2276    3.8664    2.2416 
C   -3.1819    1.4281    2.2001 
C   -1.2380    5.1775    2.3969 
C   -4.6331    3.8394    2.1628 
C   -4.5875    1.4035    2.1402 
C   -5.3151    2.6081    2.1162 
H    0.0608   -0.8079    1.4506 
H    1.6425   -0.0467    1.3072 
H    1.4219   -0.1788   -1.2200 
H   -0.1880   -0.8805   -0.9789 
H   -0.9908    1.0857    0.2595 
H    0.8977   -2.9151   -0.0413 
H    2.4190   -2.0344   -0.0345 
H    0.2229    1.3739    2.7646 
H    2.2218   -4.7528   -1.5012 
H    2.9752   -4.1850   -2.9857 
H    1.7467    2.4647    0.2923 
H    0.8382    1.9863   -1.1536 
H    0.2212    3.2456   -0.1556 
H   -0.0800   -3.5837   -2.4286 
H    0.0866   -1.9067   -2.9202 
H    4.6586   -2.8944   -1.7249 
H    4.0323   -3.5778   -0.2119 
H   -0.1461   -3.1440   -4.8801 
H    1.4938   -2.4810   -4.8218 
H    1.1972   -4.2051   -4.4934 
H    0.5755    4.1123    2.4712 
H   -2.6850    0.5339    2.2165 
H   -0.8080    6.1026    2.4369 
H   -5.1574    4.7176    2.1401 
H   -5.0719    0.5025    2.1136 
H    5.7150   -4.7436   -0.9054
