98

 C   0.7664    0.0017    0.0000    
 C  -0.7664   -0.0017    0.0000    
 C   1.2742   -1.4445   -0.0000    
 C  -1.2742    1.4445    0.0000    
 C   2.8069   -1.4413   -0.0000    
 C  -2.8069    1.4413   -0.0000    
 C   3.3154   -2.8876    0.0000    
 C  -3.3154    2.8876   -0.0000    
 C   4.8485   -2.8855   -0.0000    
 C  -4.8485    2.8855    0.0000    
 C   5.3586   -4.3316    0.0000    
 C  -5.3586    4.3316   -0.0000    
 C   6.8927   -4.3325   -0.0000    
 C  -6.8927    4.3325    0.0000    
 C   7.4064   -5.7781    0.0000    
 C  -7.4064    5.7781    0.0000    
 C   8.9423   -5.7843    0.0000    
 C  -8.9423    5.7843   -0.0000    
 C   9.4642   -7.2286   -0.0000    
 C  -9.4642    7.2286    0.0000    
 C  11.0030   -7.2411    0.0000    
 C -11.0030    7.2411   -0.0000    
 C  11.5382   -8.6836    0.0000    
 C -11.5382    8.6836   -0.0000    
 C  13.0802   -8.7093    0.0000    
 C -13.0802    8.7093    0.0000    
 C  13.6216  -10.1548    0.0000    
 C -13.6216   10.1548   -0.0000    
 C  15.1656  -10.2086   -0.0000    
 C -15.1656   10.2086   -0.0000    
 C  15.7020  -11.6530   -0.0000    
 C -15.7020   11.6530   -0.0000    
 H   1.1362    0.5248    0.8882    
 H   1.1362    0.5248   -0.8882    
 H  -1.1362   -0.5248   -0.8882    
 H  -1.1362   -0.5248    0.8882    
 H   0.9041   -1.9675    0.8882    
 H   0.9041   -1.9675   -0.8882    
 H  -0.9041    1.9675   -0.8882    
 H  -0.9041    1.9675    0.8882    
 H   3.1766   -0.9181   -0.8882    
 H   3.1766   -0.9181    0.8882    
 H  -3.1766    0.9181   -0.8882    
 H  -3.1766    0.9181    0.8882    
 H   2.9450   -3.4104   -0.8881    
 H   2.9450   -3.4104    0.8881    
 H  -2.9450    3.4104    0.8881    
 H  -2.9450    3.4104   -0.8881    
 H   5.2178   -2.3617   -0.8880    
 H   5.2178   -2.3617    0.8880    
 H  -5.2178    2.3617    0.8880    
 H  -5.2178    2.3617   -0.8880    
 H   4.9875   -4.8542   -0.8878    
 H   4.9875   -4.8542    0.8878    
 H  -4.9875    4.8542   -0.8878    
 H  -4.9875    4.8542    0.8878    
 H   7.2612   -3.8076   -0.8876    
 H   7.2612   -3.8076    0.8876    
 H  -7.2612    3.8076   -0.8876    
 H  -7.2612    3.8076    0.8876    
 H   7.0342   -6.3005   -0.8874    
 H   7.0342   -6.3005    0.8874    
 H  -7.0342    6.3005   -0.8874    
 H  -7.0342    6.3005    0.8874    
 H   9.3094   -5.2577   -0.8870    
 H   9.3094   -5.2577    0.8870    
 H  -9.3094    5.2577    0.8870    
 H  -9.3094    5.2577   -0.8870    
 H   9.0907   -7.7512   -0.8865    
 H   9.0907   -7.7512    0.8865    
 H  -9.0907    7.7512   -0.8865    
 H  -9.0907    7.7512    0.8865    
 H  11.3685   -6.7128    0.8862    
 H  11.3685   -6.7128   -0.8862    
 H -11.3685    6.7128    0.8862    
 H -11.3685    6.7128   -0.8862    
 H  11.1625   -9.2059    0.8854    
 H  11.1625   -9.2059   -0.8854    
 H -11.1625    9.2059   -0.8854    
 H -11.1625    9.2059    0.8854    
 H  13.4470   -8.1810    0.8848    
 H  13.4470   -8.1810   -0.8848    
 H -13.4470    8.1810    0.8848    
 H -13.4470    8.1810   -0.8848    
 H  13.2412  -10.6744   -0.8843    
 H  13.2412  -10.6744    0.8843    
 H -13.2412   10.6744   -0.8843    
 H -13.2412   10.6744    0.8843    
 H  15.5473   -9.6892   -0.8834    
 H  15.5473   -9.6892    0.8834    
 H -15.5473    9.6892    0.8834    
 H -15.5473    9.6892   -0.8834    
 H  16.7924  -11.6428    0.0000    
 H  15.3591  -12.1883   -0.8878    
 H  15.3591  -12.1883    0.8878    
 H -16.7924   11.6428    0.0000    
 H -15.3591   12.1883   -0.8878    
 H -15.3591   12.1883    0.8878    
