110

 C   0.7667    0.0011    0.0000    
 C  -0.7667   -0.0011    0.0000    
 C   1.2760   -1.4453   -0.0000    
 C  -1.2760    1.4453   -0.0000    
 C   2.8095   -1.4439   -0.0000    
 C  -2.8095    1.4439   -0.0000    
 C   3.3205   -2.8901   -0.0000    
 C  -3.3205    2.8901    0.0000    
 C   4.8549   -2.8915    0.0000    
 C  -4.8549    2.8915    0.0000    
 C   5.3698   -4.3374    0.0000    
 C  -5.3698    4.3374    0.0000    
 C   6.9056   -4.3441   -0.0000    
 C  -6.9056    4.3441   -0.0000    
 C   7.4264   -5.7896   -0.0000    
 C  -7.4264    5.7896   -0.0000    
 C   8.9642   -5.8042   -0.0000    
 C  -8.9642    5.8042   -0.0000    
 C   9.4956   -7.2488    0.0000    
 C  -9.4956    7.2488    0.0000    
 C  11.0361   -7.2708   -0.0000    
 C -11.0361    7.2708   -0.0000    
 C  11.5826   -8.7128   -0.0000    
 C -11.5826    8.7128    0.0000    
 C  13.1259   -8.7429    0.0000    
 C -13.1259    8.7429    0.0000    
 C  13.6812  -10.1847    0.0000    
 C -13.6812   10.1847    0.0000    
 C  15.2270  -10.2349   -0.0000    
 C -15.2270   10.2349   -0.0000    
 C  15.7797  -11.6813    0.0000    
 C -15.7797   11.6813    0.0000    
 C  17.3263  -11.7510    0.0000    
 C -17.3263   11.7510   -0.0000    
 C  17.8759  -13.1928   -0.0000    
 C -17.8759   13.1928   -0.0000    
 H   1.1364    0.5242    0.8880    
 H   1.1364    0.5242   -0.8880    
 H  -1.1364   -0.5242   -0.8880    
 H  -1.1364   -0.5242    0.8880    
 H   0.9057   -1.9680    0.8880    
 H   0.9057   -1.9680   -0.8880    
 H  -0.9057    1.9680    0.8880    
 H  -0.9057    1.9680   -0.8880    
 H   3.1787   -0.9203   -0.8879    
 H   3.1787   -0.9203    0.8879    
 H  -3.1787    0.9203   -0.8879    
 H  -3.1787    0.9203    0.8879    
 H   2.9495   -3.4126   -0.8878    
 H   2.9495   -3.4126    0.8878    
 H  -2.9495    3.4126    0.8878    
 H  -2.9495    3.4126   -0.8878    
 H   5.2235   -2.3669   -0.8876    
 H   5.2235   -2.3669    0.8876    
 H  -5.2235    2.3669    0.8876    
 H  -5.2235    2.3669   -0.8876    
 H   4.9975   -4.8596   -0.8873    
 H   4.9975   -4.8596    0.8873    
 H  -4.9975    4.8596   -0.8873    
 H  -4.9975    4.8596    0.8873    
 H   7.2734   -3.8184   -0.8869    
 H   7.2734   -3.8184    0.8869    
 H  -7.2734    3.8184    0.8869    
 H  -7.2734    3.8184   -0.8869    
 H   7.0529   -6.3115    0.8866    
 H   7.0529   -6.3115   -0.8866    
 H  -7.0529    6.3115   -0.8866    
 H  -7.0529    6.3115    0.8866    
 H   9.3315   -5.2772   -0.8862    
 H   9.3315   -5.2772    0.8862    
 H  -9.3315    5.2772    0.8862    
 H  -9.3315    5.2772   -0.8862    
 H   9.1210   -7.7712   -0.8857    
 H   9.1210   -7.7712    0.8857    
 H  -9.1210    7.7712    0.8857    
 H  -9.1210    7.7712   -0.8857    
 H  11.4022   -6.7421    0.8853    
 H  11.4022   -6.7421   -0.8853    
 H -11.4022    6.7421    0.8853    
 H -11.4022    6.7421   -0.8853    
 H  11.2076   -9.2362    0.8846    
 H  11.2076   -9.2362   -0.8846    
 H -11.2076    9.2362   -0.8846    
 H -11.2076    9.2362    0.8846    
 H  13.4927   -8.2136    0.8842    
 H  13.4927   -8.2136   -0.8842    
 H -13.4927    8.2136   -0.8842    
 H -13.4927    8.2136    0.8842    
 H  13.3048  -10.7078   -0.8838    
 H  13.3048  -10.7078    0.8838    
 H -13.3048   10.7078   -0.8838    
 H -13.3048   10.7078    0.8838    
 H  15.5988   -9.7078   -0.8834    
 H  15.5988   -9.7078    0.8834    
 H -15.5988    9.7078   -0.8834    
 H -15.5988    9.7078    0.8834    
 H  15.3999  -12.2031   -0.8832    
 H  15.3999  -12.2031    0.8832    
 H -15.3999   12.2031   -0.8832    
 H -15.3999   12.2031    0.8832    
 H  17.7116  -11.2332   -0.8825    
 H  17.7116  -11.2332    0.8825    
 H -17.7116   11.2332    0.8825    
 H -17.7116   11.2332   -0.8825    
 H  18.9668  -13.1756    0.0000    
 H  17.5411  -13.7334   -0.8873    
 H  17.5411  -13.7334    0.8873    
 H -18.9668   13.1756    0.0000    
 H -17.5411   13.7334   -0.8873    
 H -17.5411   13.7334    0.8873    
